/*--------------------------------*- C++ -*----------------------------------*\
| =========                 |                                                 |
| \\      /  F ield         | OpenFOAM: The Open Source CFD Toolbox           |
|  \\    /   O peration     | Version:  5                                     |
|   \\  /    A nd           | Web:      www.OpenFOAM.org                      |
|    \\/     M anipulation  |                                                 |
\*---------------------------------------------------------------------------*/
FoamFile
{
    version     2.0;
    format      ascii;
    class       dictionary;
    location    "constant";
    object      dynamicMeshDict;
}
// * * * * * * * * * * * * * * * * * * * * * * * * * * * * * * * * * * * * * //
#include                    "../constants"

dynamicFvMesh               dynamicMotionSolverFvMesh;

motionSolverLibs            ("libfvMotionSolvers.so");

motionSolver                solidBody;

cellZone                    rotor;

solidBodyMotionFunction     rotatingMotion;

origin                      (0 0 0);        // sliding mesh axis of rotation
axis                        (0 0 1);        // counter-clockwise
omega                       $RPS;           // radians per second

// ************************************************************************* //
