/*--------------------------------*- C++ -*----------------------------------*\
| =========                 |                                                 |
| \\      /  F ield         | OpenFOAM: The Open Source CFD Toolbox           |
|  \\    /   O peration     | Version:  v1906                                 |
|   \\  /    A nd           | Web:      www.OpenFOAM.com                      |
|    \\/     M anipulation  |                                                 |
\*---------------------------------------------------------------------------*/
FoamFile
{
    version     2.0;
    format      ascii;
    class       volVectorField;
    object      U;
}
// * * * * * * * * * * * * * * * * * * * * * * * * * * * * * * * * * * * * * //

#include	"../constants";

dimensions      [0 1 -1 0 0 0 0];

internalField   uniform ($U 0 0);

boundaryField
{

    inlet
    {
        type            fixedValue;
        value           uniform ($U 0 0);
    }
    
    outlet
    {
        type            inletOutlet;
        inletValue      uniform (0 0 0);
        value           uniform (0 0 0);
    }

    top 
    {
        type                noSlip;
    }

    bottom
    {
        type                noSlip;
    }

    front
    {
        type                empty;
    }

    back
    {
        type                empty;
    }

    "blade.*"
    {
        type                movingWallVelocity;
        value               uniform (0 0 0);
    }

    shaft
    {
        type                movingWallVelocity;
        value               uniform (0 0 0);
    }

    AMI1
    {
        type cyclicAMI;
        value $internalField;
    }

    AMI2
    {
        type cyclicAMI;
        value $internalField;
    }

}

// ************************************************************************* //
